
     RDKit          2D

  6  5  0  0  0  0  0  0  0  0999 V2000
    0.0000    0.0000    0.0000 C   0  0  0  0  0  0  0  0  0  0  0  0
    1.2990    0.7500    0.0000 C   0  0  0  0  0  0  0  0  0  0  0  0
    2.5981   -0.0000    0.0000 C   0  0  0  0  0  0  0  0  0  0  0  0
    3.8971    0.7500    0.0000 C   0  0  0  0  0  0  0  0  0  0  0  0
    5.1962   -0.0000    0.0000 C   0  0  0  0  0  0  0  0  0  0  0  0
    6.4952    0.7500    0.0000 O   0  0  0  0  0  0  0  0  0  0  0  0
  1  2  1  0
  2  3  1  0
  3  4  1  0
  4  5  1  0
  5  6  1  0
M  END
>  <olfactometer_name>  (1) 
1-pentanol

>  <olfactometer_abbrev>  (1) 
1-5ol

>  <cid>  (1) 
6276

>  <MolecularWeight>  (1) 
88.15

>  <CanonicalSMILES>  (1) 
CCCCCO

>  <IsomericSMILES>  (1) 
CCCCCO

>  <InChI>  (1) 
InChI=1S/C5H12O/c1-2-3-4-5-6/h6H,2-5H2,1H3

>  <InChIKey>  (1) 
AMQJEAYHLZJPGS-UHFFFAOYSA-N

>  <IUPACName>  (1) 
pentan-1-ol

>  <name>  (1) 
1-pentanol

$$$$

     RDKit          2D

  7  6  0  0  0  0  0  0  0  0999 V2000
    0.0000    0.0000    0.0000 C   0  0  0  0  0  0  0  0  0  0  0  0
    1.2990    0.7500    0.0000 C   0  0  0  0  0  0  0  0  0  0  0  0
    2.5981   -0.0000    0.0000 C   0  0  0  0  0  0  0  0  0  0  0  0
    3.8971    0.7500    0.0000 C   0  0  0  0  0  0  0  0  0  0  0  0
    5.1962   -0.0000    0.0000 C   0  0  0  0  0  0  0  0  0  0  0  0
    6.4952    0.7500    0.0000 C   0  0  0  0  0  0  0  0  0  0  0  0
    7.7942   -0.0000    0.0000 O   0  0  0  0  0  0  0  0  0  0  0  0
  1  2  1  0
  2  3  1  0
  3  4  1  0
  4  5  1  0
  5  6  1  0
  6  7  1  0
M  END
>  <olfactometer_name>  (2) 
1-hexanol

>  <olfactometer_abbrev>  (2) 
1-6ol

>  <cid>  (2) 
8103

>  <MolecularWeight>  (2) 
102.17

>  <CanonicalSMILES>  (2) 
CCCCCCO

>  <IsomericSMILES>  (2) 
CCCCCCO

>  <InChI>  (2) 
InChI=1S/C6H14O/c1-2-3-4-5-6-7/h7H,2-6H2,1H3

>  <InChIKey>  (2) 
ZSIAUFGUXNUGDI-UHFFFAOYSA-N

>  <IUPACName>  (2) 
hexan-1-ol

>  <name>  (2) 
1-hexanol

$$$$

     RDKit          2D

  9  8  0  0  0  0  0  0  0  0999 V2000
    0.0000    0.0000    0.0000 C   0  0  0  0  0  0  0  0  0  0  0  0
    1.2990    0.7500    0.0000 C   0  0  0  0  0  0  0  0  0  0  0  0
    2.5981   -0.0000    0.0000 C   0  0  0  0  0  0  0  0  0  0  0  0
    3.8971    0.7500    0.0000 C   0  0  0  0  0  0  0  0  0  0  0  0
    5.1962   -0.0000    0.0000 C   0  0  0  0  0  0  0  0  0  0  0  0
    6.4952    0.7500    0.0000 C   0  0  0  0  0  0  0  0  0  0  0  0
    7.7942   -0.0000    0.0000 C   0  0  0  0  0  0  0  0  0  0  0  0
    9.0933    0.7500    0.0000 C   0  0  0  0  0  0  0  0  0  0  0  0
   10.3923   -0.0000    0.0000 O   0  0  0  0  0  0  0  0  0  0  0  0
  1  2  1  0
  2  3  1  0
  3  4  1  0
  4  5  1  0
  5  6  1  0
  6  7  1  0
  7  8  1  0
  8  9  1  0
M  END
>  <olfactometer_name>  (3) 
1-octanol

>  <olfactometer_abbrev>  (3) 
1-8ol

>  <cid>  (3) 
957

>  <MolecularWeight>  (3) 
130.23

>  <CanonicalSMILES>  (3) 
CCCCCCCCO

>  <IsomericSMILES>  (3) 
CCCCCCCCO

>  <InChI>  (3) 
InChI=1S/C8H18O/c1-2-3-4-5-6-7-8-9/h9H,2-8H2,1H3

>  <InChIKey>  (3) 
KBPLFHHGFOOTCA-UHFFFAOYSA-N

>  <IUPACName>  (3) 
octan-1-ol

>  <name>  (3) 
1-octanol

$$$$

     RDKit          2D

  5  4  0  0  0  0  0  0  0  0999 V2000
    0.0000    0.0000    0.0000 C   0  0  0  0  0  0  0  0  0  0  0  0
    1.2990    0.7500    0.0000 C   0  0  0  0  0  0  0  0  0  0  0  0
    2.5981   -0.0000    0.0000 C   0  0  0  0  0  0  0  0  0  0  0  0
    2.5981   -1.5000    0.0000 O   0  0  0  0  0  0  0  0  0  0  0  0
    3.8971    0.7500    0.0000 C   0  0  0  0  0  0  0  0  0  0  0  0
  1  2  1  0
  2  3  1  0
  3  4  2  0
  3  5  1  0
M  END
>  <olfactometer_name>  (4) 
2-butanone

>  <olfactometer_abbrev>  (4) 
2-but

>  <cid>  (4) 
6569

>  <MolecularWeight>  (4) 
72.11

>  <CanonicalSMILES>  (4) 
CCC(=O)C

>  <IsomericSMILES>  (4) 
CCC(=O)C

>  <InChI>  (4) 
InChI=1S/C4H8O/c1-3-4(2)5/h3H2,1-2H3

>  <InChIKey>  (4) 
ZWEHNKRNPOVVGH-UHFFFAOYSA-N

>  <IUPACName>  (4) 
butan-2-one

>  <name>  (4) 
2-butanone

$$$$

     RDKit          2D

  8  7  0  0  0  0  0  0  0  0999 V2000
    0.0000    0.0000    0.0000 C   0  0  0  0  0  0  0  0  0  0  0  0
    1.2990    0.7500    0.0000 C   0  0  0  0  0  0  0  0  0  0  0  0
    2.5981   -0.0000    0.0000 C   0  0  0  0  0  0  0  0  0  0  0  0
    3.8971    0.7500    0.0000 C   0  0  0  0  0  0  0  0  0  0  0  0
    5.1962   -0.0000    0.0000 C   0  0  0  0  0  0  0  0  0  0  0  0
    6.4952    0.7500    0.0000 C   0  0  0  0  0  0  0  0  0  0  0  0
    6.4952    2.2500    0.0000 O   0  0  0  0  0  0  0  0  0  0  0  0
    7.7942   -0.0000    0.0000 C   0  0  0  0  0  0  0  0  0  0  0  0
  1  2  1  0
  2  3  1  0
  3  4  1  0
  4  5  1  0
  5  6  1  0
  6  7  2  0
  6  8  1  0
M  END
>  <olfactometer_name>  (5) 
2-heptanone

>  <olfactometer_abbrev>  (5) 
2h

>  <cid>  (5) 
8051

>  <MolecularWeight>  (5) 
114.19

>  <CanonicalSMILES>  (5) 
CCCCCC(=O)C

>  <IsomericSMILES>  (5) 
CCCCCC(=O)C

>  <InChI>  (5) 
InChI=1S/C7H14O/c1-3-4-5-6-7(2)8/h3-6H2,1-2H3

>  <InChIKey>  (5) 
CATSNJVOTSVZJV-UHFFFAOYSA-N

>  <IUPACName>  (5) 
heptan-2-one

>  <name>  (5) 
2-heptanone

$$$$

     RDKit          2D

  7  6  0  0  0  0  0  0  0  0999 V2000
    0.0000    0.0000    0.0000 C   0  0  0  0  0  0  0  0  0  0  0  0
    1.2990    0.7500    0.0000 C   0  0  0  0  0  0  0  0  0  0  0  0
    2.5981   -0.0000    0.0000 C   0  0  0  0  0  0  0  0  0  0  0  0
    3.8971    0.7500    0.0000 C   0  0  0  0  0  0  0  0  0  0  0  0
    5.1962   -0.0000    0.0000 C   0  0  0  0  0  0  0  0  0  0  0  0
    6.4952    0.7500    0.0000 C   0  0  0  0  0  0  0  0  0  0  0  0
    7.7942   -0.0000    0.0000 O   0  0  0  0  0  0  0  0  0  0  0  0
  1  2  1  0
  2  3  1  0
  3  4  1  0
  4  5  1  0
  5  6  1  0
  6  7  2  0
M  END
>  <olfactometer_name>  (6) 
hexanal

>  <olfactometer_abbrev>  (6) 
6al

>  <cid>  (6) 
6184

>  <MolecularWeight>  (6) 
100.16

>  <CanonicalSMILES>  (6) 
CCCCCC=O

>  <IsomericSMILES>  (6) 
CCCCCC=O

>  <InChI>  (6) 
InChI=1S/C6H12O/c1-2-3-4-5-6-7/h6H,2-5H2,1H3

>  <InChIKey>  (6) 
JARKCYVAAOWBJS-UHFFFAOYSA-N

>  <IUPACName>  (6) 
hexanal

>  <name>  (6) 
hexanal

$$$$

     RDKit          2D

 11 10  0  0  0  0  0  0  0  0999 V2000
    0.0000    0.0000    0.0000 C   0  0  0  0  0  0  0  0  0  0  0  0
    1.2990    0.7500    0.0000 C   0  0  0  0  0  0  0  0  0  0  0  0
    2.5981   -0.0000    0.0000 C   0  0  0  0  0  0  0  0  0  0  0  0
    3.8971    0.7500    0.0000 C   0  0  0  0  0  0  0  0  0  0  0  0
    5.1962   -0.0000    0.0000 C   0  0  0  0  0  0  0  0  0  0  0  0
    6.4952    0.7500    0.0000 C   0  0  0  0  0  0  0  0  0  0  0  0
    7.7942   -0.0000    0.0000 C   0  0  0  0  0  0  0  0  0  0  0  0
    6.4952    2.2500    0.0000 C   0  0  0  0  0  0  0  0  0  0  0  0
    1.2990    2.2500    0.0000 C   0  0  0  0  0  0  0  0  0  0  0  0
    2.5981    3.0000    0.0000 C   0  0  0  0  0  0  0  0  0  0  0  0
    2.5981    4.5000    0.0000 O   0  0  0  0  0  0  0  0  0  0  0  0
  2  1  1  1
  2  3  1  0
  3  4  1  0
  4  5  1  0
  5  6  2  0
  6  7  1  0
  6  8  1  0
  2  9  1  0
  9 10  1  0
 10 11  1  0
M  END
>  <olfactometer_name>  (7) 
b-citronellol

>  <olfactometer_abbrev>  (7) 
B-cit

>  <cid>  (7) 
101977

>  <MolecularWeight>  (7) 
156.26

>  <CanonicalSMILES>  (7) 
CC(CCC=C(C)C)CCO

>  <IsomericSMILES>  (7) 
C[C@H](CCC=C(C)C)CCO

>  <InChI>  (7) 
InChI=1S/C10H20O/c1-9(2)5-4-6-10(3)7-8-11/h5,10-11H,4,6-8H2,1-3H3/t10-/m1/s1

>  <InChIKey>  (7) 
QMVPMAAFGQKVCJ-SNVBAGLBSA-N

>  <IUPACName>  (7) 
(3R)-3,7-dimethyloct-6-en-1-ol

>  <name>  (7) 
d-citronellol

$$$$

     RDKit          2D

  9  8  0  0  0  0  0  0  0  0999 V2000
    0.0000    0.0000    0.0000 C   0  0  0  0  0  0  0  0  0  0  0  0
    1.2990    0.7500    0.0000 C   0  0  0  0  0  0  0  0  0  0  0  0
    2.5981   -0.0000    0.0000 C   0  0  0  0  0  0  0  0  0  0  0  0
    1.2990    2.2500    0.0000 C   0  0  0  0  0  0  0  0  0  0  0  0
    2.5981    3.0000    0.0000 C   0  0  0  0  0  0  0  0  0  0  0  0
    2.5981    4.5000    0.0000 O   0  0  0  0  0  0  0  0  0  0  0  0
    3.8971    5.2500    0.0000 C   0  0  0  0  0  0  0  0  0  0  0  0
    5.1962    4.5000    0.0000 O   0  0  0  0  0  0  0  0  0  0  0  0
    3.8971    6.7500    0.0000 C   0  0  0  0  0  0  0  0  0  0  0  0
  1  2  1  0
  2  3  1  0
  2  4  1  0
  4  5  1  0
  5  6  1  0
  6  7  1  0
  7  8  2  0
  7  9  1  0
M  END
>  <olfactometer_name>  (8) 
isopentyl acetate

>  <olfactometer_abbrev>  (8) 
IaA

>  <cid>  (8) 
31276

>  <MolecularWeight>  (8) 
130.18

>  <CanonicalSMILES>  (8) 
CC(C)CCOC(=O)C

>  <IsomericSMILES>  (8) 
CC(C)CCOC(=O)C

>  <InChI>  (8) 
InChI=1S/C7H14O2/c1-6(2)4-5-9-7(3)8/h6H,4-5H2,1-3H3

>  <InChIKey>  (8) 
MLFHJEHSLIIPHL-UHFFFAOYSA-N

>  <IUPACName>  (8) 
3-methylbutyl acetate

>  <name>  (8) 
isoamyl acetate

$$$$

     RDKit          2D

 11 10  0  0  0  0  0  0  0  0999 V2000
    0.0000    0.0000    0.0000 C   0  0  0  0  0  0  0  0  0  0  0  0
    1.2990    0.7500    0.0000 C   0  0  0  0  0  0  0  0  0  0  0  0
    1.2990    2.2500    0.0000 C   0  0  0  0  0  0  0  0  0  0  0  0
    2.5981    3.0000    0.0000 C   0  0  0  0  0  0  0  0  0  0  0  0
    2.5981    4.5000    0.0000 C   0  0  0  0  0  0  0  0  0  0  0  0
    3.8971    5.2500    0.0000 C   0  0  0  0  0  0  0  0  0  0  0  0
    5.1962    6.0000    0.0000 C   0  0  0  0  0  0  0  0  0  0  0  0
    4.6471    3.9510    0.0000 C   0  0  0  0  0  0  0  0  0  0  0  0
    6.1471    3.9510    0.0000 C   0  0  0  0  0  0  0  0  0  0  0  0
    3.1471    6.5490    0.0000 O   0  0  0  0  0  0  0  0  0  0  0  0
    2.5981   -0.0000    0.0000 C   0  0  0  0  0  0  0  0  0  0  0  0
  1  2  1  0
  2  3  2  0
  3  4  1  0
  4  5  1  0
  5  6  1  0
  6  7  1  0
  6  8  1  0
  8  9  2  0
  6 10  1  0
  2 11  1  0
M  END
>  <olfactometer_name>  (9) 
linalool

>  <olfactometer_abbrev>  (9) 
Lin

>  <cid>  (9) 
6549

>  <MolecularWeight>  (9) 
154.25

>  <CanonicalSMILES>  (9) 
CC(=CCCC(C)(C=C)O)C

>  <IsomericSMILES>  (9) 
CC(=CCCC(C)(C=C)O)C

>  <InChI>  (9) 
InChI=1S/C10H18O/c1-5-10(4,11)8-6-7-9(2)3/h5,7,11H,1,6,8H2,2-4H3

>  <InChIKey>  (9) 
CDOSHBSSFJOMGT-UHFFFAOYSA-N

>  <IUPACName>  (9) 
3,7-dimethylocta-1,6-dien-3-ol

>  <name>  (9) 
linalool

$$$$

     RDKit          2D

  4  3  0  0  0  0  0  0  0  0999 V2000
    0.0000    0.0000    0.0000 C   0  0  0  0  0  0  0  0  0  0  0  0
    1.2990    0.7500    0.0000 C   0  0  0  0  0  0  0  0  0  0  0  0
    1.2990    2.2500    0.0000 O   0  0  0  0  0  0  0  0  0  0  0  0
    2.5981   -0.0000    0.0000 O   0  0  0  0  0  0  0  0  0  0  0  0
  1  2  1  0
  2  3  2  0
  2  4  1  0
M  END
>  <olfactometer_name>  (10) 
acetic acid

>  <olfactometer_abbrev>  (10) 
aa

>  <cid>  (10) 
176

>  <MolecularWeight>  (10) 
60.05

>  <CanonicalSMILES>  (10) 
CC(=O)O

>  <IsomericSMILES>  (10) 
CC(=O)O

>  <InChI>  (10) 
InChI=1S/C2H4O2/c1-2(3)4/h1H3,(H,3,4)

>  <InChIKey>  (10) 
QTBSBXVTEAMEQO-UHFFFAOYSA-N

>  <IUPACName>  (10) 
acetic acid

>  <name>  (10) 
acetic acid

$$$$

     RDKit          2D

  8  8  0  0  0  0  0  0  0  0999 V2000
    1.5000    0.0000    0.0000 C   0  0  0  0  0  0  0  0  0  0  0  0
    0.7500   -1.2990    0.0000 C   0  0  0  0  0  0  0  0  0  0  0  0
   -0.7500   -1.2990    0.0000 C   0  0  0  0  0  0  0  0  0  0  0  0
   -1.5000    0.0000    0.0000 C   0  0  0  0  0  0  0  0  0  0  0  0
   -0.7500    1.2990    0.0000 C   0  0  0  0  0  0  0  0  0  0  0  0
    0.7500    1.2990    0.0000 C   0  0  0  0  0  0  0  0  0  0  0  0
   -3.0000    0.0000    0.0000 C   0  0  0  0  0  0  0  0  0  0  0  0
   -3.7500    1.2990    0.0000 O   0  0  0  0  0  0  0  0  0  0  0  0
  1  2  2  0
  2  3  1  0
  3  4  2  0
  4  5  1  0
  5  6  2  0
  4  7  1  0
  7  8  2  0
  6  1  1  0
M  END
>  <olfactometer_name>  (11) 
benzaldehyde

>  <olfactometer_abbrev>  (11) 
benz

>  <cid>  (11) 
240

>  <MolecularWeight>  (11) 
106.12

>  <CanonicalSMILES>  (11) 
C1=CC=C(C=C1)C=O

>  <IsomericSMILES>  (11) 
C1=CC=C(C=C1)C=O

>  <InChI>  (11) 
InChI=1S/C7H6O/c8-6-7-4-2-1-3-5-7/h1-6H

>  <InChIKey>  (11) 
HUMNYLRZRPPJDN-UHFFFAOYSA-N

>  <IUPACName>  (11) 
benzaldehyde

>  <name>  (11) 
benzaldehyde

$$$$

     RDKit          2D

  8  7  0  0  0  0  0  0  0  0999 V2000
    0.0000    0.0000    0.0000 C   0  0  0  0  0  0  0  0  0  0  0  0
    1.2990    0.7500    0.0000 C   0  0  0  0  0  0  0  0  0  0  0  0
    2.5981   -0.0000    0.0000 C   0  0  0  0  0  0  0  0  0  0  0  0
    3.8971    0.7500    0.0000 C   0  0  0  0  0  0  0  0  0  0  0  0
    3.8971    2.2500    0.0000 O   0  0  0  0  0  0  0  0  0  0  0  0
    5.1962   -0.0000    0.0000 O   0  0  0  0  0  0  0  0  0  0  0  0
    6.4952    0.7500    0.0000 C   0  0  0  0  0  0  0  0  0  0  0  0
    7.7942   -0.0000    0.0000 C   0  0  0  0  0  0  0  0  0  0  0  0
  1  2  1  0
  2  3  1  0
  3  4  1  0
  4  5  2  0
  4  6  1  0
  6  7  1  0
  7  8  1  0
M  END
>  <olfactometer_name>  (12) 
ethyl butyrate

>  <olfactometer_abbrev>  (12) 
eb

>  <cid>  (12) 
7762

>  <MolecularWeight>  (12) 
116.16

>  <CanonicalSMILES>  (12) 
CCCC(=O)OCC

>  <IsomericSMILES>  (12) 
CCCC(=O)OCC

>  <InChI>  (12) 
InChI=1S/C6H12O2/c1-3-5-6(7)8-4-2/h3-5H2,1-2H3

>  <InChIKey>  (12) 
OBNCKNCVKJNDBV-UHFFFAOYSA-N

>  <IUPACName>  (12) 
ethyl butanoate

>  <name>  (12) 
ethyl butyrate

$$$$

     RDKit          2D

  7  6  0  0  0  0  0  0  0  0999 V2000
    0.0000    0.0000    0.0000 C   0  0  0  0  0  0  0  0  0  0  0  0
    1.2990    0.7500    0.0000 C   0  0  0  0  0  0  0  0  0  0  0  0
    2.5981   -0.0000    0.0000 C   0  0  0  0  0  0  0  0  0  0  0  0
    2.5981   -1.5000    0.0000 O   0  0  0  0  0  0  0  0  0  0  0  0
    3.8971    0.7500    0.0000 O   0  0  0  0  0  0  0  0  0  0  0  0
    5.1962   -0.0000    0.0000 C   0  0  0  0  0  0  0  0  0  0  0  0
    6.4952    0.7500    0.0000 C   0  0  0  0  0  0  0  0  0  0  0  0
  1  2  1  0
  2  3  1  0
  3  4  2  0
  3  5  1  0
  5  6  1  0
  6  7  1  0
M  END
>  <olfactometer_name>  (13) 
ethyl propionate

>  <olfactometer_abbrev>  (13) 
ep

>  <cid>  (13) 
7749

>  <MolecularWeight>  (13) 
102.13

>  <CanonicalSMILES>  (13) 
CCC(=O)OCC

>  <IsomericSMILES>  (13) 
CCC(=O)OCC

>  <InChI>  (13) 
InChI=1S/C5H10O2/c1-3-5(6)7-4-2/h3-4H2,1-2H3

>  <InChIKey>  (13) 
FKRCODPIKNYEAC-UHFFFAOYSA-N

>  <IUPACName>  (13) 
ethyl propanoate

>  <name>  (13) 
ethyl propionate

$$$$

     RDKit          2D

 11 11  0  0  0  0  0  0  0  0999 V2000
    5.2500   -1.2990    0.0000 C   0  0  0  0  0  0  0  0  0  0  0  0
    3.7500   -1.2990    0.0000 O   0  0  0  0  0  0  0  0  0  0  0  0
    3.0000    0.0000    0.0000 C   0  0  0  0  0  0  0  0  0  0  0  0
    3.7500    1.2990    0.0000 O   0  0  0  0  0  0  0  0  0  0  0  0
    1.5000    0.0000    0.0000 C   0  0  0  0  0  0  0  0  0  0  0  0
    0.7500   -1.2990    0.0000 C   0  0  0  0  0  0  0  0  0  0  0  0
   -0.7500   -1.2990    0.0000 C   0  0  0  0  0  0  0  0  0  0  0  0
   -1.5000    0.0000    0.0000 C   0  0  0  0  0  0  0  0  0  0  0  0
   -0.7500    1.2990    0.0000 C   0  0  0  0  0  0  0  0  0  0  0  0
    0.7500    1.2990    0.0000 C   0  0  0  0  0  0  0  0  0  0  0  0
    1.5000    2.5981    0.0000 O   0  0  0  0  0  0  0  0  0  0  0  0
  1  2  1  0
  2  3  1  0
  3  4  2  0
  3  5  1  0
  5  6  2  0
  6  7  1  0
  7  8  2  0
  8  9  1  0
  9 10  2  0
 10 11  1  0
 10  5  1  0
M  END
>  <olfactometer_name>  (14) 
methyl salicylate

>  <olfactometer_abbrev>  (14) 
ms

>  <cid>  (14) 
4133

>  <MolecularWeight>  (14) 
152.15

>  <CanonicalSMILES>  (14) 
COC(=O)C1=CC=CC=C1O

>  <IsomericSMILES>  (14) 
COC(=O)C1=CC=CC=C1O

>  <InChI>  (14) 
InChI=1S/C8H8O3/c1-11-8(10)6-4-2-3-5-7(6)9/h2-5,9H,1H3

>  <InChIKey>  (14) 
OSWPMRLSEDHDFF-UHFFFAOYSA-N

>  <IUPACName>  (14) 
methyl 2-hydroxybenzoate

>  <name>  (14) 
methyl salicylate

$$$$

     RDKit          2D

  9  8  0  0  0  0  0  0  0  0999 V2000
    0.0000    0.0000    0.0000 C   0  0  0  0  0  0  0  0  0  0  0  0
    1.2990    0.7500    0.0000 C   0  0  0  0  0  0  0  0  0  0  0  0
    2.5981   -0.0000    0.0000 C   0  0  0  0  0  0  0  0  0  0  0  0
    3.8971    0.7500    0.0000 C   0  0  0  0  0  0  0  0  0  0  0  0
    5.1962   -0.0000    0.0000 C   0  0  0  0  0  0  0  0  0  0  0  0
    6.4952    0.7500    0.0000 O   0  0  0  0  0  0  0  0  0  0  0  0
    7.7942   -0.0000    0.0000 C   0  0  0  0  0  0  0  0  0  0  0  0
    7.7942   -1.5000    0.0000 O   0  0  0  0  0  0  0  0  0  0  0  0
    9.0933    0.7500    0.0000 C   0  0  0  0  0  0  0  0  0  0  0  0
  1  2  1  0
  2  3  1  0
  3  4  1  0
  4  5  1  0
  5  6  1  0
  6  7  1  0
  7  8  2  0
  7  9  1  0
M  END
>  <olfactometer_name>  (15) 
pentyl acetate

>  <olfactometer_abbrev>  (15) 
pa

>  <cid>  (15) 
12348

>  <MolecularWeight>  (15) 
130.18

>  <CanonicalSMILES>  (15) 
CCCCCOC(=O)C

>  <IsomericSMILES>  (15) 
CCCCCOC(=O)C

>  <InChI>  (15) 
InChI=1S/C7H14O2/c1-3-4-5-6-9-7(2)8/h3-6H2,1-2H3

>  <InChIKey>  (15) 
PGMYKACGEOXYJE-UHFFFAOYSA-N

>  <IUPACName>  (15) 
pentyl acetate

>  <name>  (15) 
amyl acetate

$$$$

     RDKit          2D

  7  6  0  0  0  0  0  0  0  0999 V2000
   -3.0000   -2.5981    0.0000 C   0  0  0  0  0  0  0  0  0  0  0  0
   -2.2500   -1.2990    0.0000 C   0  0  0  0  0  0  0  0  0  0  0  0
   -0.7500   -1.2990    0.0000 C   0  0  0  0  0  0  0  0  0  0  0  0
    0.0000    0.0000    0.0000 C   0  0  0  0  0  0  0  0  0  0  0  0
    1.5000    0.0000    0.0000 C   0  0  0  0  0  0  0  0  0  0  0  0
    2.2500    1.2990    0.0000 C   0  0  0  0  0  0  0  0  0  0  0  0
    3.7500    1.2990    0.0000 O   0  0  0  0  0  0  0  0  0  0  0  0
  1  2  1  0
  2  3  1  0
  3  4  1  0
  4  5  2  0
  5  6  1  0
  6  7  2  0
M  END
>  <olfactometer_name>  (16) 
trans-2-hexenal

>  <olfactometer_abbrev>  (16) 
t2h

>  <cid>  (16) 
5281168

>  <MolecularWeight>  (16) 
98.14

>  <CanonicalSMILES>  (16) 
CCCC=CC=O

>  <IsomericSMILES>  (16) 
CCC/C=C/C=O

>  <InChI>  (16) 
InChI=1S/C6H10O/c1-2-3-4-5-6-7/h4-6H,2-3H2,1H3/b5-4+

>  <InChIKey>  (16) 
MBDOYVRWFFCFHM-SNAWJCMRSA-N

>  <IUPACName>  (16) 
(E)-hex-2-enal

>  <name>  (16) 
trans-2-hexenal

$$$$

     RDKit          2D

  7  6  0  0  0  0  0  0  0  0999 V2000
    0.0000    0.0000    0.0000 C   0  0  0  0  0  0  0  0  0  0  0  0
    1.2990    0.7500    0.0000 C   0  0  0  0  0  0  0  0  0  0  0  0
    2.5981   -0.0000    0.0000 C   0  0  0  0  0  0  0  0  0  0  0  0
    3.8971    0.7500    0.0000 C   0  0  0  0  0  0  0  0  0  0  0  0
    5.1962   -0.0000    0.0000 C   0  0  0  0  0  0  0  0  0  0  0  0
    5.1962   -1.5000    0.0000 O   0  0  0  0  0  0  0  0  0  0  0  0
    6.4952    0.7500    0.0000 O   0  0  0  0  0  0  0  0  0  0  0  0
  1  2  1  0
  2  3  1  0
  3  4  1  0
  4  5  1  0
  5  6  2  0
  5  7  1  0
M  END
>  <olfactometer_name>  (17) 
pentanoic acid

>  <olfactometer_abbrev>  (17) 
va

>  <cid>  (17) 
7991

>  <MolecularWeight>  (17) 
102.13

>  <CanonicalSMILES>  (17) 
CCCCC(=O)O

>  <IsomericSMILES>  (17) 
CCCCC(=O)O

>  <InChI>  (17) 
InChI=1S/C5H10O2/c1-2-3-4-5(6)7/h2-4H2,1H3,(H,6,7)

>  <InChIKey>  (17) 
NQPDZGIKBAWPEJ-UHFFFAOYSA-N

>  <IUPACName>  (17) 
pentanoic acid

>  <name>  (17) 
valeric acid

$$$$
